# generated using pymatgen
data_C
_symmetry_space_group_name_H-M   'P 1'
_cell_length_a   25.63201124
_cell_length_b   68.60757976
_cell_length_c   30.00000000
_cell_angle_alpha   90.00000000
_cell_angle_beta   90.00000000
_cell_angle_gamma   105.89081762
_symmetry_Int_Tables_number   1
_chemical_formula_structural   C
_chemical_formula_sum   C434
_cell_volume   50740.42840773
_cell_formula_units_Z   434
loop_
 _symmetry_equiv_pos_site_id
 _symmetry_equiv_pos_as_xyz
  1  'x, y, z'
loop_
 _atom_site_type_symbol
 _atom_site_label
 _atom_site_symmetry_multiplicity
 _atom_site_fract_x
 _atom_site_fract_y
 _atom_site_fract_z
 _atom_site_occupancy
  C  C0  1  0.01228879  0.02611367  0.50000000  1
  C  C1  1  0.13210445  0.03072197  0.50000000  1
  C  C2  1  0.09062980  0.06758833  0.50000000  1
  C  C3  1  0.04915515  0.10445469  0.50000000  1
  C  C4  1  0.25192012  0.03533026  0.50000000  1
  C  C5  1  0.21044547  0.07219662  0.50000000  1
  C  C6  1  0.16897081  0.10906298  0.50000000  1
  C  C7  1  0.12749616  0.14592934  0.50000000  1
  C  C8  1  0.08602151  0.18279570  0.50000000  1
  C  C9  1  0.04454685  0.21966206  0.50000000  1
  C  C10  1  0.37173579  0.03993856  0.50000000  1
  C  C11  1  0.33026114  0.07680492  0.50000000  1
  C  C12  1  0.28878648  0.11367127  0.50000000  1
  C  C13  1  0.24731183  0.15053763  0.50000000  1
  C  C14  1  0.20583717  0.18740399  0.50000000  1
  C  C15  1  0.16436252  0.22427035  0.50000000  1
  C  C16  1  0.12288786  0.26113671  0.50000000  1
  C  C17  1  0.08141321  0.29800307  0.50000000  1
  C  C18  1  0.03993856  0.33486943  0.50000000  1
  C  C19  1  0.49155146  0.04454685  0.50000000  1
  C  C20  1  0.45007680  0.08141321  0.50000000  1
  C  C21  1  0.40860215  0.11827957  0.50000000  1
  C  C22  1  0.36712750  0.15514593  0.50000000  1
  C  C23  1  0.32565284  0.19201229  0.50000000  1
  C  C24  1  0.28417819  0.22887865  0.50000000  1
  C  C25  1  0.24270353  0.26574501  0.50000000  1
  C  C26  1  0.20122888  0.30261137  0.50000000  1
  C  C27  1  0.15975422  0.33947773  0.50000000  1
  C  C28  1  0.11827957  0.37634409  0.50000000  1
  C  C29  1  0.07680492  0.41321045  0.50000000  1
  C  C30  1  0.03533026  0.45007680  0.50000000  1
  C  C31  1  0.61136713  0.04915515  0.50000000  1
  C  C32  1  0.56989247  0.08602151  0.50000000  1
  C  C33  1  0.52841782  0.12288786  0.50000000  1
  C  C34  1  0.48694316  0.15975422  0.50000000  1
  C  C35  1  0.44546851  0.19662058  0.50000000  1
  C  C36  1  0.40399386  0.23348694  0.50000000  1
  C  C37  1  0.36251920  0.27035330  0.50000000  1
  C  C38  1  0.32104455  0.30721966  0.50000000  1
  C  C39  1  0.27956989  0.34408602  0.50000000  1
  C  C40  1  0.23809524  0.38095238  0.50000000  1
  C  C41  1  0.19662058  0.41781874  0.50000000  1
  C  C42  1  0.15514593  0.45468510  0.50000000  1
  C  C43  1  0.11367127  0.49155146  0.50000000  1
  C  C44  1  0.07219662  0.52841782  0.50000000  1
  C  C45  1  0.03072197  0.56528418  0.50000000  1
  C  C46  1  0.73118280  0.05376344  0.50000000  1
  C  C47  1  0.68970814  0.09062980  0.50000000  1
  C  C48  1  0.64823349  0.12749616  0.50000000  1
  C  C49  1  0.60675883  0.16436252  0.50000000  1
  C  C50  1  0.56528418  0.20122888  0.50000000  1
  C  C51  1  0.52380952  0.23809524  0.50000000  1
  C  C52  1  0.48233487  0.27496160  0.50000000  1
  C  C53  1  0.44086022  0.31182796  0.50000000  1
  C  C54  1  0.39938556  0.34869432  0.50000000  1
  C  C55  1  0.35791091  0.38556068  0.50000000  1
  C  C56  1  0.31643625  0.42242704  0.50000000  1
  C  C57  1  0.27496160  0.45929339  0.50000000  1
  C  C58  1  0.23348694  0.49615975  0.50000000  1
  C  C59  1  0.19201229  0.53302611  0.50000000  1
  C  C60  1  0.15053763  0.56989247  0.50000000  1
  C  C61  1  0.10906298  0.60675883  0.50000000  1
  C  C62  1  0.06758833  0.64362519  0.50000000  1
  C  C63  1  0.02611367  0.68049155  0.50000000  1
  C  C64  1  0.85099846  0.05837174  0.50000000  1
  C  C65  1  0.80952381  0.09523810  0.50000000  1
  C  C66  1  0.76804916  0.13210445  0.50000000  1
  C  C67  1  0.72657450  0.16897081  0.50000000  1
  C  C68  1  0.68509985  0.20583717  0.50000000  1
  C  C69  1  0.64362519  0.24270353  0.50000000  1
  C  C70  1  0.60215054  0.27956989  0.50000000  1
  C  C71  1  0.56067588  0.31643625  0.50000000  1
  C  C72  1  0.51920123  0.35330261  0.50000000  1
  C  C73  1  0.47772657  0.39016897  0.50000000  1
  C  C74  1  0.43625192  0.42703533  0.50000000  1
  C  C75  1  0.39477727  0.46390169  0.50000000  1
  C  C76  1  0.35330261  0.50076805  0.50000000  1
  C  C77  1  0.31182796  0.53763441  0.50000000  1
  C  C78  1  0.27035330  0.57450077  0.50000000  1
  C  C79  1  0.22887865  0.61136713  0.50000000  1
  C  C80  1  0.18740399  0.64823349  0.50000000  1
  C  C81  1  0.14592934  0.68509985  0.50000000  1
  C  C82  1  0.10445469  0.72196621  0.50000000  1
  C  C83  1  0.06298003  0.75883257  0.50000000  1
  C  C84  1  0.02150538  0.79569892  0.50000000  1
  C  C85  1  0.97081413  0.06298003  0.50000000  1
  C  C86  1  0.92933948  0.09984639  0.50000000  1
  C  C87  1  0.88786482  0.13671275  0.50000000  1
  C  C88  1  0.84639017  0.17357911  0.50000000  1
  C  C89  1  0.80491551  0.21044547  0.50000000  1
  C  C90  1  0.76344086  0.24731183  0.50000000  1
  C  C91  1  0.72196621  0.28417819  0.50000000  1
  C  C92  1  0.68049155  0.32104455  0.50000000  1
  C  C93  1  0.63901690  0.35791091  0.50000000  1
  C  C94  1  0.59754224  0.39477727  0.50000000  1
  C  C95  1  0.55606759  0.43164363  0.50000000  1
  C  C96  1  0.51459293  0.46850998  0.50000000  1
  C  C97  1  0.47311828  0.50537634  0.50000000  1
  C  C98  1  0.43164363  0.54224270  0.50000000  1
  C  C99  1  0.39016897  0.57910906  0.50000000  1
  C  C100  1  0.34869432  0.61597542  0.50000000  1
  C  C101  1  0.30721966  0.65284178  0.50000000  1
  C  C102  1  0.26574501  0.68970814  0.50000000  1
  C  C103  1  0.22427035  0.72657450  0.50000000  1
  C  C104  1  0.18279570  0.76344086  0.50000000  1
  C  C105  1  0.14132104  0.80030722  0.50000000  1
  C  C106  1  0.09984639  0.83717358  0.50000000  1
  C  C107  1  0.05837174  0.87403994  0.50000000  1
  C  C108  1  0.01689708  0.91090630  0.50000000  1
  C  C109  1  0.00768049  0.14132104  0.50000000  1
  C  C110  1  0.96620584  0.17818740  0.50000000  1
  C  C111  1  0.92473118  0.21505376  0.50000000  1
  C  C112  1  0.88325653  0.25192012  0.50000000  1
  C  C113  1  0.84178187  0.28878648  0.50000000  1
  C  C114  1  0.80030722  0.32565284  0.50000000  1
  C  C115  1  0.75883257  0.36251920  0.50000000  1
  C  C116  1  0.71735791  0.39938556  0.50000000  1
  C  C117  1  0.67588326  0.43625192  0.50000000  1
  C  C118  1  0.63440860  0.47311828  0.50000000  1
  C  C119  1  0.59293395  0.50998464  0.50000000  1
  C  C120  1  0.55145929  0.54685100  0.50000000  1
  C  C121  1  0.50998464  0.58371736  0.50000000  1
  C  C122  1  0.46850998  0.62058372  0.50000000  1
  C  C123  1  0.42703533  0.65745008  0.50000000  1
  C  C124  1  0.38556068  0.69431644  0.50000000  1
  C  C125  1  0.34408602  0.73118280  0.50000000  1
  C  C126  1  0.30261137  0.76804916  0.50000000  1
  C  C127  1  0.26113671  0.80491551  0.50000000  1
  C  C128  1  0.21966206  0.84178187  0.50000000  1
  C  C129  1  0.17818740  0.87864823  0.50000000  1
  C  C130  1  0.13671275  0.91551459  0.50000000  1
  C  C131  1  0.09523810  0.95238095  0.50000000  1
  C  C132  1  0.05376344  0.98924731  0.50000000  1
  C  C133  1  0.00307220  0.25652842  0.50000000  1
  C  C134  1  0.96159754  0.29339478  0.50000000  1
  C  C135  1  0.92012289  0.33026114  0.50000000  1
  C  C136  1  0.87864823  0.36712750  0.50000000  1
  C  C137  1  0.83717358  0.40399386  0.50000000  1
  C  C138  1  0.79569892  0.44086022  0.50000000  1
  C  C139  1  0.75422427  0.47772657  0.50000000  1
  C  C140  1  0.71274962  0.51459293  0.50000000  1
  C  C141  1  0.67127496  0.55145929  0.50000000  1
  C  C142  1  0.62980031  0.58832565  0.50000000  1
  C  C143  1  0.58832565  0.62519201  0.50000000  1
  C  C144  1  0.54685100  0.66205837  0.50000000  1
  C  C145  1  0.50537634  0.69892473  0.50000000  1
  C  C146  1  0.46390169  0.73579109  0.50000000  1
  C  C147  1  0.42242704  0.77265745  0.50000000  1
  C  C148  1  0.38095238  0.80952381  0.50000000  1
  C  C149  1  0.33947773  0.84639017  0.50000000  1
  C  C150  1  0.29800307  0.88325653  0.50000000  1
  C  C151  1  0.25652842  0.92012289  0.50000000  1
  C  C152  1  0.21505376  0.95698925  0.50000000  1
  C  C153  1  0.17357911  0.99385561  0.50000000  1
  C  C154  1  0.99846390  0.37173579  0.50000000  1
  C  C155  1  0.95698925  0.40860215  0.50000000  1
  C  C156  1  0.91551459  0.44546851  0.50000000  1
  C  C157  1  0.87403994  0.48233487  0.50000000  1
  C  C158  1  0.83256528  0.51920123  0.50000000  1
  C  C159  1  0.79109063  0.55606759  0.50000000  1
  C  C160  1  0.74961598  0.59293395  0.50000000  1
  C  C161  1  0.70814132  0.62980031  0.50000000  1
  C  C162  1  0.66666667  0.66666667  0.50000000  1
  C  C163  1  0.62519201  0.70353303  0.50000000  1
  C  C164  1  0.58371736  0.74039939  0.50000000  1
  C  C165  1  0.54224270  0.77726575  0.50000000  1
  C  C166  1  0.50076805  0.81413210  0.50000000  1
  C  C167  1  0.45929339  0.85099846  0.50000000  1
  C  C168  1  0.41781874  0.88786482  0.50000000  1
  C  C169  1  0.37634409  0.92473118  0.50000000  1
  C  C170  1  0.33486943  0.96159754  0.50000000  1
  C  C171  1  0.29339478  0.99846390  0.50000000  1
  C  C172  1  0.99385561  0.48694316  0.50000000  1
  C  C173  1  0.95238095  0.52380952  0.50000000  1
  C  C174  1  0.91090630  0.56067588  0.50000000  1
  C  C175  1  0.86943164  0.59754224  0.50000000  1
  C  C176  1  0.82795699  0.63440860  0.50000000  1
  C  C177  1  0.78648233  0.67127496  0.50000000  1
  C  C178  1  0.74500768  0.70814132  0.50000000  1
  C  C179  1  0.70353303  0.74500768  0.50000000  1
  C  C180  1  0.66205837  0.78187404  0.50000000  1
  C  C181  1  0.62058372  0.81874040  0.50000000  1
  C  C182  1  0.57910906  0.85560676  0.50000000  1
  C  C183  1  0.53763441  0.89247312  0.50000000  1
  C  C184  1  0.49615975  0.92933948  0.50000000  1
  C  C185  1  0.45468510  0.96620584  0.50000000  1
  C  C186  1  0.41321045  0.00307220  0.50000000  1
  C  C187  1  0.98924731  0.60215054  0.50000000  1
  C  C188  1  0.94777266  0.63901690  0.50000000  1
  C  C189  1  0.90629800  0.67588326  0.50000000  1
  C  C190  1  0.86482335  0.71274962  0.50000000  1
  C  C191  1  0.82334869  0.74961598  0.50000000  1
  C  C192  1  0.78187404  0.78648233  0.50000000  1
  C  C193  1  0.74039939  0.82334869  0.50000000  1
  C  C194  1  0.69892473  0.86021505  0.50000000  1
  C  C195  1  0.65745008  0.89708141  0.50000000  1
  C  C196  1  0.61597542  0.93394777  0.50000000  1
  C  C197  1  0.57450077  0.97081413  0.50000000  1
  C  C198  1  0.53302611  0.00768049  0.50000000  1
  C  C199  1  0.98463902  0.71735791  0.50000000  1
  C  C200  1  0.94316436  0.75422427  0.50000000  1
  C  C201  1  0.90168971  0.79109063  0.50000000  1
  C  C202  1  0.86021505  0.82795699  0.50000000  1
  C  C203  1  0.81874040  0.86482335  0.50000000  1
  C  C204  1  0.77726575  0.90168971  0.50000000  1
  C  C205  1  0.73579109  0.93855607  0.50000000  1
  C  C206  1  0.69431644  0.97542243  0.50000000  1
  C  C207  1  0.65284178  0.01228879  0.50000000  1
  C  C208  1  0.98003072  0.83256528  0.50000000  1
  C  C209  1  0.93855607  0.86943164  0.50000000  1
  C  C210  1  0.89708141  0.90629800  0.50000000  1
  C  C211  1  0.85560676  0.94316436  0.50000000  1
  C  C212  1  0.81413210  0.98003072  0.50000000  1
  C  C213  1  0.77265745  0.01689708  0.50000000  1
  C  C214  1  0.97542243  0.94777266  0.50000000  1
  C  C215  1  0.93394777  0.98463902  0.50000000  1
  C  C216  1  0.89247312  0.02150538  0.50000000  1
  C  C217  1  0.02457757  0.05222734  0.50000000  1
  C  C218  1  0.14439324  0.05683564  0.50000000  1
  C  C219  1  0.10291859  0.09370200  0.50000000  1
  C  C220  1  0.06144393  0.13056836  0.50000000  1
  C  C221  1  0.26420891  0.06144393  0.50000000  1
  C  C222  1  0.22273425  0.09831029  0.50000000  1
  C  C223  1  0.18125960  0.13517665  0.50000000  1
  C  C224  1  0.13978495  0.17204301  0.50000000  1
  C  C225  1  0.09831029  0.20890937  0.50000000  1
  C  C226  1  0.05683564  0.24577573  0.50000000  1
  C  C227  1  0.38402458  0.06605223  0.50000000  1
  C  C228  1  0.34254992  0.10291859  0.50000000  1
  C  C229  1  0.30107527  0.13978495  0.50000000  1
  C  C230  1  0.25960061  0.17665131  0.50000000  1
  C  C231  1  0.21812596  0.21351767  0.50000000  1
  C  C232  1  0.17665131  0.25038402  0.50000000  1
  C  C233  1  0.13517665  0.28725038  0.50000000  1
  C  C234  1  0.09370200  0.32411674  0.50000000  1
  C  C235  1  0.05222734  0.36098310  0.50000000  1
  C  C236  1  0.50384025  0.07066052  0.50000000  1
  C  C237  1  0.46236559  0.10752688  0.50000000  1
  C  C238  1  0.42089094  0.14439324  0.50000000  1
  C  C239  1  0.37941628  0.18125960  0.50000000  1
  C  C240  1  0.33794163  0.21812596  0.50000000  1
  C  C241  1  0.29646697  0.25499232  0.50000000  1
  C  C242  1  0.25499232  0.29185868  0.50000000  1
  C  C243  1  0.21351767  0.32872504  0.50000000  1
  C  C244  1  0.17204301  0.36559140  0.50000000  1
  C  C245  1  0.13056836  0.40245776  0.50000000  1
  C  C246  1  0.08909370  0.43932412  0.50000000  1
  C  C247  1  0.04761905  0.47619048  0.50000000  1
  C  C248  1  0.62365591  0.07526882  0.50000000  1
  C  C249  1  0.58218126  0.11213518  0.50000000  1
  C  C250  1  0.54070661  0.14900154  0.50000000  1
  C  C251  1  0.49923195  0.18586790  0.50000000  1
  C  C252  1  0.45775730  0.22273425  0.50000000  1
  C  C253  1  0.41628264  0.25960061  0.50000000  1
  C  C254  1  0.37480799  0.29646697  0.50000000  1
  C  C255  1  0.33333333  0.33333333  0.50000000  1
  C  C256  1  0.29185868  0.37019969  0.50000000  1
  C  C257  1  0.25038402  0.40706605  0.50000000  1
  C  C258  1  0.20890937  0.44393241  0.50000000  1
  C  C259  1  0.16743472  0.48079877  0.50000000  1
  C  C260  1  0.12596006  0.51766513  0.50000000  1
  C  C261  1  0.08448541  0.55453149  0.50000000  1
  C  C262  1  0.04301075  0.59139785  0.50000000  1
  C  C263  1  0.74347158  0.07987711  0.50000000  1
  C  C264  1  0.70199693  0.11674347  0.50000000  1
  C  C265  1  0.66052227  0.15360983  0.50000000  1
  C  C266  1  0.61904762  0.19047619  0.50000000  1
  C  C267  1  0.57757296  0.22734255  0.50000000  1
  C  C268  1  0.53609831  0.26420891  0.50000000  1
  C  C269  1  0.49462366  0.30107527  0.50000000  1
  C  C270  1  0.45314900  0.33794163  0.50000000  1
  C  C271  1  0.41167435  0.37480799  0.50000000  1
  C  C272  1  0.37019969  0.41167435  0.50000000  1
  C  C273  1  0.32872504  0.44854071  0.50000000  1
  C  C274  1  0.28725038  0.48540707  0.50000000  1
  C  C275  1  0.24577573  0.52227343  0.50000000  1
  C  C276  1  0.20430108  0.55913978  0.50000000  1
  C  C277  1  0.16282642  0.59600614  0.50000000  1
  C  C278  1  0.12135177  0.63287250  0.50000000  1
  C  C279  1  0.07987711  0.66973886  0.50000000  1
  C  C280  1  0.03840246  0.70660522  0.50000000  1
  C  C281  1  0.86328725  0.08448541  0.50000000  1
  C  C282  1  0.82181260  0.12135177  0.50000000  1
  C  C283  1  0.78033794  0.15821813  0.50000000  1
  C  C284  1  0.73886329  0.19508449  0.50000000  1
  C  C285  1  0.69738863  0.23195084  0.50000000  1
  C  C286  1  0.65591398  0.26881720  0.50000000  1
  C  C287  1  0.61443932  0.30568356  0.50000000  1
  C  C288  1  0.57296467  0.34254992  0.50000000  1
  C  C289  1  0.53149002  0.37941628  0.50000000  1
  C  C290  1  0.49001536  0.41628264  0.50000000  1
  C  C291  1  0.44854071  0.45314900  0.50000000  1
  C  C292  1  0.40706605  0.49001536  0.50000000  1
  C  C293  1  0.36559140  0.52688172  0.50000000  1
  C  C294  1  0.32411674  0.56374808  0.50000000  1
  C  C295  1  0.28264209  0.60061444  0.50000000  1
  C  C296  1  0.24116743  0.63748080  0.50000000  1
  C  C297  1  0.19969278  0.67434716  0.50000000  1
  C  C298  1  0.15821813  0.71121352  0.50000000  1
  C  C299  1  0.11674347  0.74807988  0.50000000  1
  C  C300  1  0.07526882  0.78494624  0.50000000  1
  C  C301  1  0.03379416  0.82181260  0.50000000  1
  C  C302  1  0.98310292  0.08909370  0.50000000  1
  C  C303  1  0.94162826  0.12596006  0.50000000  1
  C  C304  1  0.90015361  0.16282642  0.50000000  1
  C  C305  1  0.85867896  0.19969278  0.50000000  1
  C  C306  1  0.81720430  0.23655914  0.50000000  1
  C  C307  1  0.77572965  0.27342550  0.50000000  1
  C  C308  1  0.73425499  0.31029186  0.50000000  1
  C  C309  1  0.69278034  0.34715822  0.50000000  1
  C  C310  1  0.65130568  0.38402458  0.50000000  1
  C  C311  1  0.60983103  0.42089094  0.50000000  1
  C  C312  1  0.56835637  0.45775730  0.50000000  1
  C  C313  1  0.52688172  0.49462366  0.50000000  1
  C  C314  1  0.48540707  0.53149002  0.50000000  1
  C  C315  1  0.44393241  0.56835637  0.50000000  1
  C  C316  1  0.40245776  0.60522273  0.50000000  1
  C  C317  1  0.36098310  0.64208909  0.50000000  1
  C  C318  1  0.31950845  0.67895545  0.50000000  1
  C  C319  1  0.27803379  0.71582181  0.50000000  1
  C  C320  1  0.23655914  0.75268817  0.50000000  1
  C  C321  1  0.19508449  0.78955453  0.50000000  1
  C  C322  1  0.15360983  0.82642089  0.50000000  1
  C  C323  1  0.11213518  0.86328725  0.50000000  1
  C  C324  1  0.07066052  0.90015361  0.50000000  1
  C  C325  1  0.02918587  0.93701997  0.50000000  1
  C  C326  1  0.01996928  0.16743472  0.50000000  1
  C  C327  1  0.97849462  0.20430108  0.50000000  1
  C  C328  1  0.93701997  0.24116743  0.50000000  1
  C  C329  1  0.89554531  0.27803379  0.50000000  1
  C  C330  1  0.85407066  0.31490015  0.50000000  1
  C  C331  1  0.81259601  0.35176651  0.50000000  1
  C  C332  1  0.77112135  0.38863287  0.50000000  1
  C  C333  1  0.72964670  0.42549923  0.50000000  1
  C  C334  1  0.68817204  0.46236559  0.50000000  1
  C  C335  1  0.64669739  0.49923195  0.50000000  1
  C  C336  1  0.60522273  0.53609831  0.50000000  1
  C  C337  1  0.56374808  0.57296467  0.50000000  1
  C  C338  1  0.52227343  0.60983103  0.50000000  1
  C  C339  1  0.48079877  0.64669739  0.50000000  1
  C  C340  1  0.43932412  0.68356375  0.50000000  1
  C  C341  1  0.39784946  0.72043011  0.50000000  1
  C  C342  1  0.35637481  0.75729647  0.50000000  1
  C  C343  1  0.31490015  0.79416283  0.50000000  1
  C  C344  1  0.27342550  0.83102919  0.50000000  1
  C  C345  1  0.23195084  0.86789555  0.50000000  1
  C  C346  1  0.19047619  0.90476190  0.50000000  1
  C  C347  1  0.14900154  0.94162826  0.50000000  1
  C  C348  1  0.10752688  0.97849462  0.50000000  1
  C  C349  1  0.06605223  0.01536098  0.50000000  1
  C  C350  1  0.01536098  0.28264209  0.50000000  1
  C  C351  1  0.97388633  0.31950845  0.50000000  1
  C  C352  1  0.93241167  0.35637481  0.50000000  1
  C  C353  1  0.89093702  0.39324117  0.50000000  1
  C  C354  1  0.84946237  0.43010753  0.50000000  1
  C  C355  1  0.80798771  0.46697389  0.50000000  1
  C  C356  1  0.76651306  0.50384025  0.50000000  1
  C  C357  1  0.72503840  0.54070661  0.50000000  1
  C  C358  1  0.68356375  0.57757296  0.50000000  1
  C  C359  1  0.64208909  0.61443932  0.50000000  1
  C  C360  1  0.60061444  0.65130568  0.50000000  1
  C  C361  1  0.55913978  0.68817204  0.50000000  1
  C  C362  1  0.51766513  0.72503840  0.50000000  1
  C  C363  1  0.47619048  0.76190476  0.50000000  1
  C  C364  1  0.43471582  0.79877112  0.50000000  1
  C  C365  1  0.39324117  0.83563748  0.50000000  1
  C  C366  1  0.35176651  0.87250384  0.50000000  1
  C  C367  1  0.31029186  0.90937020  0.50000000  1
  C  C368  1  0.26881720  0.94623656  0.50000000  1
  C  C369  1  0.22734255  0.98310292  0.50000000  1
  C  C370  1  0.18586790  0.01996928  0.50000000  1
  C  C371  1  0.01075269  0.39784946  0.50000000  1
  C  C372  1  0.96927803  0.43471582  0.50000000  1
  C  C373  1  0.92780338  0.47158218  0.50000000  1
  C  C374  1  0.88632873  0.50844854  0.50000000  1
  C  C375  1  0.84485407  0.54531490  0.50000000  1
  C  C376  1  0.80337942  0.58218126  0.50000000  1
  C  C377  1  0.76190476  0.61904762  0.50000000  1
  C  C378  1  0.72043011  0.65591398  0.50000000  1
  C  C379  1  0.67895545  0.69278034  0.50000000  1
  C  C380  1  0.63748080  0.72964670  0.50000000  1
  C  C381  1  0.59600614  0.76651306  0.50000000  1
  C  C382  1  0.55453149  0.80337942  0.50000000  1
  C  C383  1  0.51305684  0.84024578  0.50000000  1
  C  C384  1  0.47158218  0.87711214  0.50000000  1
  C  C385  1  0.43010753  0.91397849  0.50000000  1
  C  C386  1  0.38863287  0.95084485  0.50000000  1
  C  C387  1  0.34715822  0.98771121  0.50000000  1
  C  C388  1  0.30568356  0.02457757  0.50000000  1
  C  C389  1  0.00614439  0.51305684  0.50000000  1
  C  C390  1  0.96466974  0.54992320  0.50000000  1
  C  C391  1  0.92319508  0.58678955  0.50000000  1
  C  C392  1  0.88172043  0.62365591  0.50000000  1
  C  C393  1  0.84024578  0.66052227  0.50000000  1
  C  C394  1  0.79877112  0.69738863  0.50000000  1
  C  C395  1  0.75729647  0.73425499  0.50000000  1
  C  C396  1  0.71582181  0.77112135  0.50000000  1
  C  C397  1  0.67434716  0.80798771  0.50000000  1
  C  C398  1  0.63287250  0.84485407  0.50000000  1
  C  C399  1  0.59139785  0.88172043  0.50000000  1
  C  C400  1  0.54992320  0.91858679  0.50000000  1
  C  C401  1  0.50844854  0.95545315  0.50000000  1
  C  C402  1  0.46697389  0.99231951  0.50000000  1
  C  C403  1  0.42549923  0.02918587  0.50000000  1
  C  C404  1  0.00153610  0.62826421  0.50000000  1
  C  C405  1  0.96006144  0.66513057  0.50000000  1
  C  C406  1  0.91858679  0.70199693  0.50000000  1
  C  C407  1  0.87711214  0.73886329  0.50000000  1
  C  C408  1  0.83563748  0.77572965  0.50000000  1
  C  C409  1  0.79416283  0.81259601  0.50000000  1
  C  C410  1  0.75268817  0.84946237  0.50000000  1
  C  C411  1  0.71121352  0.88632873  0.50000000  1
  C  C412  1  0.66973886  0.92319508  0.50000000  1
  C  C413  1  0.62826421  0.96006144  0.50000000  1
  C  C414  1  0.58678955  0.99692780  0.50000000  1
  C  C415  1  0.54531490  0.03379416  0.50000000  1
  C  C416  1  0.99692780  0.74347158  0.50000000  1
  C  C417  1  0.95545315  0.78033794  0.50000000  1
  C  C418  1  0.91397849  0.81720430  0.50000000  1
  C  C419  1  0.87250384  0.85407066  0.50000000  1
  C  C420  1  0.83102919  0.89093702  0.50000000  1
  C  C421  1  0.78955453  0.92780338  0.50000000  1
  C  C422  1  0.74807988  0.96466974  0.50000000  1
  C  C423  1  0.70660522  0.00153610  0.50000000  1
  C  C424  1  0.66513057  0.03840246  0.50000000  1
  C  C425  1  0.99231951  0.85867896  0.50000000  1
  C  C426  1  0.95084485  0.89554531  0.50000000  1
  C  C427  1  0.90937020  0.93241167  0.50000000  1
  C  C428  1  0.86789555  0.96927803  0.50000000  1
  C  C429  1  0.82642089  0.00614439  0.50000000  1
  C  C430  1  0.78494624  0.04301075  0.50000000  1
  C  C431  1  0.98771121  0.97388633  0.50000000  1
  C  C432  1  0.94623656  0.01075269  0.50000000  1
  C  C433  1  0.90476190  0.04761905  0.50000000  1
