# generated using pymatgen
data_C
_symmetry_space_group_name_H-M   'P 1'
_cell_length_a   15.87450787
_cell_length_b   15.87450787
_cell_length_c   30.00000000
_cell_angle_alpha   90.00000000
_cell_angle_beta   90.00000000
_cell_angle_gamma   60.00000000
_symmetry_Int_Tables_number   1
_chemical_formula_structural   C
_chemical_formula_sum   C112
_cell_volume   6547.15205261
_cell_formula_units_Z   112
loop_
 _symmetry_equiv_pos_site_id
 _symmetry_equiv_pos_as_xyz
  1  'x, y, z'
loop_
 _atom_site_type_symbol
 _atom_site_label
 _atom_site_symmetry_multiplicity
 _atom_site_fract_x
 _atom_site_fract_y
 _atom_site_fract_z
 _atom_site_occupancy
  C  C0  1  0.19047619  0.76190476  0.51666667  1
  C  C1  1  0.33333333  0.83333333  0.51666667  1
  C  C2  1  0.47619048  0.90476190  0.51666667  1
  C  C3  1  0.11904762  0.47619048  0.51666667  1
  C  C4  1  0.26190476  0.54761905  0.51666667  1
  C  C5  1  0.40476190  0.61904762  0.51666667  1
  C  C6  1  0.54761905  0.69047619  0.51666667  1
  C  C7  1  0.69047619  0.76190476  0.51666667  1
  C  C8  1  0.83333333  0.83333333  0.51666667  1
  C  C9  1  0.97619048  0.90476190  0.51666667  1
  C  C10  1  0.19047619  0.26190476  0.51666667  1
  C  C11  1  0.33333333  0.33333333  0.51666667  1
  C  C12  1  0.47619048  0.40476190  0.51666667  1
  C  C13  1  0.61904762  0.47619048  0.51666667  1
  C  C14  1  0.76190476  0.54761905  0.51666667  1
  C  C15  1  0.90476190  0.61904762  0.51666667  1
  C  C16  1  0.04761905  0.69047619  0.51666667  1
  C  C17  1  0.11904762  0.97619048  0.51666667  1
  C  C18  1  0.26190476  0.04761905  0.51666667  1
  C  C19  1  0.40476190  0.11904762  0.51666667  1
  C  C20  1  0.54761905  0.19047619  0.51666667  1
  C  C21  1  0.69047619  0.26190476  0.51666667  1
  C  C22  1  0.83333333  0.33333333  0.51666667  1
  C  C23  1  0.97619048  0.40476190  0.51666667  1
  C  C24  1  0.61904762  0.97619048  0.51666667  1
  C  C25  1  0.76190476  0.04761905  0.51666667  1
  C  C26  1  0.90476190  0.11904762  0.51666667  1
  C  C27  1  0.04761905  0.19047619  0.51666667  1
  C  C28  1  0.30952381  0.73809524  0.51666667  1
  C  C29  1  0.45238095  0.80952381  0.51666667  1
  C  C30  1  0.59523810  0.88095238  0.51666667  1
  C  C31  1  0.23809524  0.45238095  0.51666667  1
  C  C32  1  0.38095238  0.52380952  0.51666667  1
  C  C33  1  0.52380952  0.59523810  0.51666667  1
  C  C34  1  0.66666667  0.66666667  0.51666667  1
  C  C35  1  0.80952381  0.73809524  0.51666667  1
  C  C36  1  0.95238095  0.80952381  0.51666667  1
  C  C37  1  0.09523810  0.88095238  0.51666667  1
  C  C38  1  0.30952381  0.23809524  0.51666667  1
  C  C39  1  0.45238095  0.30952381  0.51666667  1
  C  C40  1  0.59523810  0.38095238  0.51666667  1
  C  C41  1  0.73809524  0.45238095  0.51666667  1
  C  C42  1  0.88095238  0.52380952  0.51666667  1
  C  C43  1  0.02380952  0.59523810  0.51666667  1
  C  C44  1  0.16666667  0.66666667  0.51666667  1
  C  C45  1  0.23809524  0.95238095  0.51666667  1
  C  C46  1  0.38095238  0.02380952  0.51666667  1
  C  C47  1  0.52380952  0.09523810  0.51666667  1
  C  C48  1  0.66666667  0.16666667  0.51666667  1
  C  C49  1  0.80952381  0.23809524  0.51666667  1
  C  C50  1  0.95238095  0.30952381  0.51666667  1
  C  C51  1  0.09523810  0.38095238  0.51666667  1
  C  C52  1  0.73809524  0.95238095  0.51666667  1
  C  C53  1  0.88095238  0.02380952  0.51666667  1
  C  C54  1  0.02380952  0.09523810  0.51666667  1
  C  C55  1  0.16666667  0.16666667  0.51666667  1
  C  C56  1  0.09523810  0.52380952  0.48333333  1
  C  C57  1  0.16666667  0.66666667  0.48333333  1
  C  C58  1  0.23809524  0.80952381  0.48333333  1
  C  C59  1  0.30952381  0.95238095  0.48333333  1
  C  C60  1  0.09523810  0.02380952  0.48333333  1
  C  C61  1  0.16666667  0.16666667  0.48333333  1
  C  C62  1  0.23809524  0.30952381  0.48333333  1
  C  C63  1  0.30952381  0.45238095  0.48333333  1
  C  C64  1  0.38095238  0.59523810  0.48333333  1
  C  C65  1  0.45238095  0.73809524  0.48333333  1
  C  C66  1  0.52380952  0.88095238  0.48333333  1
  C  C67  1  0.38095238  0.09523810  0.48333333  1
  C  C68  1  0.45238095  0.23809524  0.48333333  1
  C  C69  1  0.52380952  0.38095238  0.48333333  1
  C  C70  1  0.59523810  0.52380952  0.48333333  1
  C  C71  1  0.66666667  0.66666667  0.48333333  1
  C  C72  1  0.73809524  0.80952381  0.48333333  1
  C  C73  1  0.80952381  0.95238095  0.48333333  1
  C  C74  1  0.59523810  0.02380952  0.48333333  1
  C  C75  1  0.66666667  0.16666667  0.48333333  1
  C  C76  1  0.73809524  0.30952381  0.48333333  1
  C  C77  1  0.80952381  0.45238095  0.48333333  1
  C  C78  1  0.88095238  0.59523810  0.48333333  1
  C  C79  1  0.95238095  0.73809524  0.48333333  1
  C  C80  1  0.02380952  0.88095238  0.48333333  1
  C  C81  1  0.88095238  0.09523810  0.48333333  1
  C  C82  1  0.95238095  0.23809524  0.48333333  1
  C  C83  1  0.02380952  0.38095238  0.48333333  1
  C  C84  1  0.19047619  0.54761905  0.48333333  1
  C  C85  1  0.26190476  0.69047619  0.48333333  1
  C  C86  1  0.33333333  0.83333333  0.48333333  1
  C  C87  1  0.40476190  0.97619048  0.48333333  1
  C  C88  1  0.19047619  0.04761905  0.48333333  1
  C  C89  1  0.26190476  0.19047619  0.48333333  1
  C  C90  1  0.33333333  0.33333333  0.48333333  1
  C  C91  1  0.40476190  0.47619048  0.48333333  1
  C  C92  1  0.47619048  0.61904762  0.48333333  1
  C  C93  1  0.54761905  0.76190476  0.48333333  1
  C  C94  1  0.61904762  0.90476190  0.48333333  1
  C  C95  1  0.47619048  0.11904762  0.48333333  1
  C  C96  1  0.54761905  0.26190476  0.48333333  1
  C  C97  1  0.61904762  0.40476190  0.48333333  1
  C  C98  1  0.69047619  0.54761905  0.48333333  1
  C  C99  1  0.76190476  0.69047619  0.48333333  1
  C  C100  1  0.83333333  0.83333333  0.48333333  1
  C  C101  1  0.90476190  0.97619048  0.48333333  1
  C  C102  1  0.69047619  0.04761905  0.48333333  1
  C  C103  1  0.76190476  0.19047619  0.48333333  1
  C  C104  1  0.83333333  0.33333333  0.48333333  1
  C  C105  1  0.90476190  0.47619048  0.48333333  1
  C  C106  1  0.97619048  0.61904762  0.48333333  1
  C  C107  1  0.04761905  0.76190476  0.48333333  1
  C  C108  1  0.11904762  0.90476190  0.48333333  1
  C  C109  1  0.97619048  0.11904762  0.48333333  1
  C  C110  1  0.04761905  0.26190476  0.48333333  1
  C  C111  1  0.11904762  0.40476190  0.48333333  1
