# generated using pymatgen
data_Sb
_symmetry_space_group_name_H-M   'P 1'
_cell_length_a   15.87450787
_cell_length_b   15.87450787
_cell_length_c   30.00000000
_cell_angle_alpha   90.00000000
_cell_angle_beta   90.00000000
_cell_angle_gamma   60.00000000
_symmetry_Int_Tables_number   1
_chemical_formula_structural   Sb
_chemical_formula_sum   Sb112
_cell_volume   6547.15205261
_cell_formula_units_Z   112
loop_
 _symmetry_equiv_pos_site_id
 _symmetry_equiv_pos_as_xyz
  1  'x, y, z'
loop_
 _atom_site_type_symbol
 _atom_site_label
 _atom_site_symmetry_multiplicity
 _atom_site_fract_x
 _atom_site_fract_y
 _atom_site_fract_z
 _atom_site_occupancy
  Sb  Sb0  1  0.19047619  0.76190476  0.53000000  1.0
  Sb  Sb1  1  0.33333333  0.83333333  0.53000000  1.0
  Sb  Sb2  1  0.47619048  0.90476190  0.53000000  1.0
  Sb  Sb3  1  0.11904762  0.47619048  0.53000000  1.0
  Sb  Sb4  1  0.26190476  0.54761905  0.53000000  1.0
  Sb  Sb5  1  0.40476190  0.61904762  0.53000000  1.0
  Sb  Sb6  1  0.54761905  0.69047619  0.53000000  1.0
  Sb  Sb7  1  0.69047619  0.76190476  0.53000000  1.0
  Sb  Sb8  1  0.83333333  0.83333333  0.53000000  1.0
  Sb  Sb9  1  0.97619048  0.90476190  0.53000000  1.0
  Sb  Sb10  1  0.19047619  0.26190476  0.53000000  1.0
  Sb  Sb11  1  0.33333333  0.33333333  0.53000000  1.0
  Sb  Sb12  1  0.47619048  0.40476190  0.53000000  1.0
  Sb  Sb13  1  0.61904762  0.47619048  0.53000000  1.0
  Sb  Sb14  1  0.76190476  0.54761905  0.53000000  1.0
  Sb  Sb15  1  0.90476190  0.61904762  0.53000000  1.0
  Sb  Sb16  1  0.04761905  0.69047619  0.53000000  1.0
  Sb  Sb17  1  0.11904762  0.97619048  0.53000000  1.0
  Sb  Sb18  1  0.26190476  0.04761905  0.53000000  1.0
  Sb  Sb19  1  0.40476190  0.11904762  0.53000000  1.0
  Sb  Sb20  1  0.54761905  0.19047619  0.53000000  1.0
  Sb  Sb21  1  0.69047619  0.26190476  0.53000000  1.0
  Sb  Sb22  1  0.83333333  0.33333333  0.53000000  1.0
  Sb  Sb23  1  0.97619048  0.40476190  0.53000000  1.0
  Sb  Sb24  1  0.61904762  0.97619048  0.53000000  1.0
  Sb  Sb25  1  0.76190476  0.04761905  0.53000000  1.0
  Sb  Sb26  1  0.90476190  0.11904762  0.53000000  1.0
  Sb  Sb27  1  0.04761905  0.19047619  0.53000000  1.0
  Sb  Sb28  1  0.30952381  0.73809524  0.53000000  1.0
  Sb  Sb29  1  0.45238095  0.80952381  0.53000000  1.0
  Sb  Sb30  1  0.59523810  0.88095238  0.53000000  1.0
  Sb  Sb31  1  0.23809524  0.45238095  0.53000000  1.0
  Sb  Sb32  1  0.38095238  0.52380952  0.53000000  1.0
  Sb  Sb33  1  0.52380952  0.59523810  0.53000000  1.0
  Sb  Sb34  1  0.66666667  0.66666667  0.53000000  1.0
  Sb  Sb35  1  0.80952381  0.73809524  0.53000000  1.0
  Sb  Sb36  1  0.95238095  0.80952381  0.53000000  1.0
  Sb  Sb37  1  0.09523810  0.88095238  0.53000000  1.0
  Sb  Sb38  1  0.30952381  0.23809524  0.53000000  1.0
  Sb  Sb39  1  0.45238095  0.30952381  0.53000000  1.0
  Sb  Sb40  1  0.59523810  0.38095238  0.53000000  1.0
  Sb  Sb41  1  0.73809524  0.45238095  0.53000000  1.0
  Sb  Sb42  1  0.88095238  0.52380952  0.53000000  1.0
  Sb  Sb43  1  0.02380952  0.59523810  0.53000000  1.0
  Sb  Sb44  1  0.16666667  0.66666667  0.53000000  1.0
  Sb  Sb45  1  0.23809524  0.95238095  0.53000000  1.0
  Sb  Sb46  1  0.38095238  0.02380952  0.53000000  1.0
  Sb  Sb47  1  0.52380952  0.09523810  0.53000000  1.0
  Sb  Sb48  1  0.66666667  0.16666667  0.53000000  1.0
  Sb  Sb49  1  0.80952381  0.23809524  0.53000000  1.0
  Sb  Sb50  1  0.95238095  0.30952381  0.53000000  1.0
  Sb  Sb51  1  0.09523810  0.38095238  0.53000000  1.0
  Sb  Sb52  1  0.73809524  0.95238095  0.53000000  1.0
  Sb  Sb53  1  0.88095238  0.02380952  0.53000000  1.0
  Sb  Sb54  1  0.02380952  0.09523810  0.53000000  1.0
  Sb  Sb55  1  0.16666667  0.16666667  0.53000000  1.0
  Sb  Sb56  1  0.09523810  0.52380952  0.47000000  1.0
  Sb  Sb57  1  0.16666667  0.66666667  0.47000000  1.0
  Sb  Sb58  1  0.23809524  0.80952381  0.47000000  1.0
  Sb  Sb59  1  0.30952381  0.95238095  0.47000000  1.0
  Sb  Sb60  1  0.09523810  0.02380952  0.47000000  1.0
  Sb  Sb61  1  0.16666667  0.16666667  0.47000000  1.0
  Sb  Sb62  1  0.23809524  0.30952381  0.47000000  1.0
  Sb  Sb63  1  0.30952381  0.45238095  0.47000000  1.0
  Sb  Sb64  1  0.38095238  0.59523810  0.47000000  1.0
  Sb  Sb65  1  0.45238095  0.73809524  0.47000000  1.0
  Sb  Sb66  1  0.52380952  0.88095238  0.47000000  1.0
  Sb  Sb67  1  0.38095238  0.09523810  0.47000000  1.0
  Sb  Sb68  1  0.45238095  0.23809524  0.47000000  1.0
  Sb  Sb69  1  0.52380952  0.38095238  0.47000000  1.0
  Sb  Sb70  1  0.59523810  0.52380952  0.47000000  1.0
  Sb  Sb71  1  0.66666667  0.66666667  0.47000000  1.0
  Sb  Sb72  1  0.73809524  0.80952381  0.47000000  1.0
  Sb  Sb73  1  0.80952381  0.95238095  0.47000000  1.0
  Sb  Sb74  1  0.59523810  0.02380952  0.47000000  1.0
  Sb  Sb75  1  0.66666667  0.16666667  0.47000000  1.0
  Sb  Sb76  1  0.73809524  0.30952381  0.47000000  1.0
  Sb  Sb77  1  0.80952381  0.45238095  0.47000000  1.0
  Sb  Sb78  1  0.88095238  0.59523810  0.47000000  1.0
  Sb  Sb79  1  0.95238095  0.73809524  0.47000000  1.0
  Sb  Sb80  1  0.02380952  0.88095238  0.47000000  1.0
  Sb  Sb81  1  0.88095238  0.09523810  0.47000000  1.0
  Sb  Sb82  1  0.95238095  0.23809524  0.47000000  1.0
  Sb  Sb83  1  0.02380952  0.38095238  0.47000000  1.0
  Sb  Sb84  1  0.19047619  0.54761905  0.47000000  1.0
  Sb  Sb85  1  0.26190476  0.69047619  0.47000000  1.0
  Sb  Sb86  1  0.33333333  0.83333333  0.47000000  1.0
  Sb  Sb87  1  0.40476190  0.97619048  0.47000000  1.0
  Sb  Sb88  1  0.19047619  0.04761905  0.47000000  1.0
  Sb  Sb89  1  0.26190476  0.19047619  0.47000000  1.0
  Sb  Sb90  1  0.33333333  0.33333333  0.47000000  1.0
  Sb  Sb91  1  0.40476190  0.47619048  0.47000000  1.0
  Sb  Sb92  1  0.47619048  0.61904762  0.47000000  1.0
  Sb  Sb93  1  0.54761905  0.76190476  0.47000000  1.0
  Sb  Sb94  1  0.61904762  0.90476190  0.47000000  1.0
  Sb  Sb95  1  0.47619048  0.11904762  0.47000000  1.0
  Sb  Sb96  1  0.54761905  0.26190476  0.47000000  1.0
  Sb  Sb97  1  0.61904762  0.40476190  0.47000000  1.0
  Sb  Sb98  1  0.69047619  0.54761905  0.47000000  1.0
  Sb  Sb99  1  0.76190476  0.69047619  0.47000000  1.0
  Sb  Sb100  1  0.83333333  0.83333333  0.47000000  1.0
  Sb  Sb101  1  0.90476190  0.97619048  0.47000000  1.0
  Sb  Sb102  1  0.69047619  0.04761905  0.47000000  1.0
  Sb  Sb103  1  0.76190476  0.19047619  0.47000000  1.0
  Sb  Sb104  1  0.83333333  0.33333333  0.47000000  1.0
  Sb  Sb105  1  0.90476190  0.47619048  0.47000000  1.0
  Sb  Sb106  1  0.97619048  0.61904762  0.47000000  1.0
  Sb  Sb107  1  0.04761905  0.76190476  0.47000000  1.0
  Sb  Sb108  1  0.11904762  0.90476190  0.47000000  1.0
  Sb  Sb109  1  0.97619048  0.11904762  0.47000000  1.0
  Sb  Sb110  1  0.04761905  0.26190476  0.47000000  1.0
  Sb  Sb111  1  0.11904762  0.40476190  0.47000000  1.0
